         0	   4220000
         1	   8851800
         2	   CE83000
         3	  74000010
         4	  114B4800
         5	  79490000
         6	  15AE6000
         7	  1A007800
         8	  8A0F0000
         9	  1E538800
         A	  7A0F0006
         B	  8A0F0010
         C	  22B6A000
         D	  2719B800
         E	  7E0F0006
         F	  2B60D000
        10	  2FA0E280
        11	  33E0F1C0
        12	  88C50010
        13	  37E0F7C0
        14	  681F0019
        15	  74000006
        16	  6C1F001E
        17	  70000019
        18	  798F001E
        19	  FFFFFFFE
        1A	  FFFFFFFE
        1B	  FFFFFFFE
        1C	  FFFFFFFE
        1D	  FFFFFFFE
        1E	         0
        1F	         0
        20	         0
        21	         0
